!KGEN-generated Fortran source file 
  
!Generated at : 2026-04-26 02:58:06 
!KGEN version : 0.8.1 
  
!**********************************************************************************************************************************
! LICENSING
! Copyright (C) 2015-2018  National Renewable Energy Laboratory
!    This file is part of AeroDyn.
! Licensed under the Apache License, Version 2.0 (the "License");
! you may not use this file except in compliance with the License.
! You may obtain a copy of the License at
!     http://www.apache.org/licenses/LICENSE-2.0
! Unless required by applicable law or agreed to in writing, software
! distributed under the License is distributed on an "AS IS" BASIS,
! WITHOUT WARRANTIES OR CONDITIONS OF ANY KIND, either express or implied.
! See the License for the specific language governing permissions and
! limitations under the License.
!**********************************************************************************************************************************


!
!
!
!
!
MODULE AirfoilInfo
   ! This module contains airfoil-related routines with non-system-specific logic and references.
! Redo this routing to get rid of some of the phases.  For instance, AFI_Init should be calle directly.


    USE airfoilinfo_types 
    USE nwtc_lapack 
    USE kgen_utils_mod, ONLY: kgen_dp, kgen_array_sumcheck 
    USE tprof_mod, ONLY: tstart, tstop, tnull, tprnt 

    IMPLICIT NONE 

    PRIVATE 


    PUBLIC readaffile 

CONTAINS


   !=============================================================================
   


   !=============================================================================
   !> This routine checks the init input values for AFI and makes sure they are valid
   !! before using them.
   


   !=============================================================================
  
SUBROUTINE readaffile(kgen_unit, kgen_measure, kgen_isverified, kgen_filepath, initinp, p) 
         ! This routine reads an airfoil file.
         ! Argument declarations.
    USE kgen_utils_mod, ONLY: kgen_dp, kgen_array_sumcheck 
    USE kgen_utils_mod, ONLY: kgen_perturb_real 
    USE nwtc_num, ONLY: kr_externs_out_nwtc_num 
    USE kgen_utils_mod, ONLY: check_t, kgen_init_check, kgen_init_verify, kgen_tolerance, kgen_minvalue, kgen_verboselevel, &
    &CHECK_IDENTICAL, CHECK_IN_TOL, CHECK_OUT_TOL 


    TYPE(afi_initinputtype), INTENT(INOUT) :: initinp 
      


    TYPE(afi_parametertype), INTENT(INOUT) :: p 
         ! Local declarations.


                                              
    INTEGER :: itable 
                                              


      
    TYPE(afi_ua_bl_default_type), allocatable :: calcdefaults(:) 
    INTEGER, INTENT(IN) :: kgen_unit 
    REAL(KIND=kgen_dp), INTENT(OUT) :: kgen_measure 
    LOGICAL, INTENT(OUT) :: kgen_isverified 
    CHARACTER(LEN=*), INTENT(IN) :: kgen_filepath 
    LOGICAL :: kgen_istrue 
    REAL(KIND=8) :: kgen_array_sum 
    INTEGER :: kgen_intvar, kgen_ierr 
    INTEGER :: kgen_mpirank, kgen_openmptid, kgen_kernelinvoke 
    LOGICAL :: kgen_evalstage, kgen_warmupstage, kgen_mainstage 
    COMMON / state / kgen_mpirank, kgen_openmptid, kgen_kernelinvoke, kgen_evalstage, kgen_warmupstage, kgen_mainstage 
    INTEGER, PARAMETER :: KGEN_MAXITER = 1 
      
    TYPE(check_t) :: check_status 
    INTEGER*8 :: kgen_start_clock, kgen_stop_clock, kgen_rate_clock 
    REAL(KIND=kgen_dp) :: gkgen_measure 
    TYPE(afi_parametertype) :: kgenref_p 
    INTEGER :: kgenref_itable 
      
    !parent block preprocessing 
    kgen_mpirank = 0 
      
    !local input variables 
    READ (UNIT = kgen_unit) itable 
    CALL kr_kgen_readaffile_subp2(calcdefaults, kgen_unit, "calcdefaults", .FALSE.) 
      
    !extern output variables 
    CALL kr_externs_out_nwtc_num(kgen_unit) 
      
    !local output variables 
    CALL kr_airfoilinfo_types_afi_parametertype(kgenref_p, kgen_unit, "kgenref_p", .FALSE.) 
    READ (UNIT = kgen_unit) kgenref_itable 
      
      ! Getting parent folder of airfoils data (e.g. "Arifoils/")
      
         ! Process the (possibly) nested set of files.  This copies the decommented contents of
         ! AFI_FileInfo%FileName and the files it includes (both directly and indirectly) into
         ! the FileInfo structure that we can then parse.


         ! Process the airfoil shape information if it is included.
         


      

         ! RelThickness, default is 0.2 if user doesn't know it, only used for Boeing-Vertol UA model = 7
         

         ! NonDimArea is currently unused by AirfoilInfo or codes using AirfoilInfo.  GJH 9/13/2017
         
         
         ! NumCoords, with the Coords data, is used for determining the blade shape (currently used 
         !   for visualization only).  This data (blade coordinates) is passed to the caller via 
         !   the InitOut%BladeShape data structure, and stored in p%XCoord, etc.,
         !   but is currently unused by AFI module.  GJH 9/13/2017
         


      ! Reading Boundary layer file for aeroacoustics
      

         !CALL SetErrStat( ErrStat2, ErrMsg2, ErrStat, ErrMsg, RoutineName )

         ! How many columns do we need to read in the input and how many total coefficients will be used?


         ! Work through the multiple tables.


    IF (kgen_evalstage) THEN 
    END IF   
    IF (kgen_warmupstage) THEN 
    END IF   
    IF (kgen_mainstage) THEN 
    END IF   
      
    !Uncomment following call statement to turn on perturbation experiment. 
    !Adjust perturbation value and/or kind parameter if required. 
    !CALL kgen_perturb_real( your_variable, 1.0E-15_8 ) 
      
      
    !call to kgen kernel 
            call CalculateUACoeffs(CalcDefaults(iTable), p%Table(iTable), p%ColCl, p%ColCd, p%ColCm, p%ColUAf, InitInp%UAMod)
            IF (kgen_mainstage) THEN 
                  
                !verify init 
                CALL kgen_init_verify(tolerance=1.D-14, minvalue=1.D-14, verboseLevel=1) 
                CALL kgen_init_check(check_status, rank=kgen_mpirank) 
                  
                !extern verify variables 
                  
                !local verify variables 
                CALL kv_airfoilinfo_types_afi_parametertype("p", check_status, p, kgenref_p) 
                CALL kv_readaffile_integer__("itable", check_status, itable, kgenref_itable) 
                IF (check_status%rank == 0) THEN 
                    WRITE (*, *) "" 
                END IF   
                IF (kgen_verboseLevel > 0) THEN 
                    IF (check_status%rank == 0) THEN 
                        WRITE (*, *) "Number of output variables: ", check_status%numTotal 
                        WRITE (*, *) "Number of identical variables: ", check_status%numIdentical 
                        WRITE (*, *) "Number of non-identical variables within tolerance: ", check_status%numInTol 
                        WRITE (*, *) "Number of non-identical variables out of tolerance: ", check_status%numOutTol 
                        WRITE (*, *) "Tolerance: ", kgen_tolerance 
                    END IF   
                END IF   
                IF (check_status%rank == 0) THEN 
                    WRITE (*, *) "" 
                END IF   
                IF (check_status%numOutTol > 0) THEN 
                    IF (check_status%rank == 0) THEN 
                        WRITE (*, *) "Verification FAILED with" // TRIM(ADJUSTL(kgen_filepath)) 
                    END IF   
                    check_status%Passed = .FALSE. 
                    kgen_isverified = .FALSE. 
                ELSE 
                    IF (check_status%rank == 0) THEN 
                        WRITE (*, *) "Verification PASSED with " // TRIM(ADJUSTL(kgen_filepath)) 
                    END IF   
                    check_status%Passed = .TRUE. 
                    kgen_isverified = .TRUE. 
                END IF   
                IF (check_status%rank == 0) THEN 
                    WRITE (*, *) "" 
                END IF   
                CALL SYSTEM_CLOCK(kgen_start_clock, kgen_rate_clock) 
                DO kgen_intvar = 1, KGEN_MAXITER 
            call CalculateUACoeffs(CalcDefaults(iTable), p%Table(iTable), p%ColCl, p%ColCd, p%ColCm, p%ColUAf, InitInp%UAMod)
                END DO   
                CALL SYSTEM_CLOCK(kgen_stop_clock, kgen_rate_clock) 
                kgen_measure = 1.0D6*(kgen_stop_clock - kgen_start_clock)/DBLE(kgen_rate_clock*KGEN_MAXITER) 
                IF (check_status%rank==0) THEN 
                    WRITE (*, *) "CalculateUACoeffs : Time per call (usec): ", kgen_measure 
                END IF   
            END IF   
            IF (kgen_warmupstage) THEN 
            END IF   
            IF (kgen_evalstage) THEN 
            END IF   


      !=======================================================================

      !=======================================================================
              
            CONTAINS 
              
                  


            !read state subroutine for kr_kgen_readaffile_subp2 
            SUBROUTINE kr_kgen_readaffile_subp2(var, kgen_unit, printname, printvar) 
                TYPE(afi_ua_bl_default_type), INTENT(INOUT), ALLOCATABLE, DIMENSION(:) :: var 
                INTEGER, INTENT(IN) :: kgen_unit 
                CHARACTER(LEN=*), INTENT(IN) :: printname 
                LOGICAL, INTENT(IN), OPTIONAL :: printvar 
                LOGICAL :: kgen_istrue 
                REAL(KIND=8) :: kgen_array_sum 
                INTEGER :: idx1 
                INTEGER, DIMENSION(2,1) :: kgen_bound 
                  
                READ (UNIT = kgen_unit) kgen_istrue 
                IF (kgen_istrue) THEN 
                    IF (ALLOCATED( var )) THEN 
                        DEALLOCATE (var) 
                    END IF   
                    READ (UNIT = kgen_unit) kgen_bound(1, 1) 
                    READ (UNIT = kgen_unit) kgen_bound(2, 1) 
                    ALLOCATE (var(kgen_bound(1,1):kgen_bound(2,1))) 
                    DO idx1=kgen_bound(1,1), kgen_bound(2,1) 
                        IF (PRESENT( printvar ) .AND. printvar) THEN 
                            CALL kr_kgen_airfoilinfo_types_typesubp0(var(idx1), kgen_unit, printname // "(idx1)", .TRUE.) 
                        ELSE 
                            CALL kr_kgen_airfoilinfo_types_typesubp0(var(idx1), kgen_unit, printname // "(idx1)", .FALSE.) 
                        END IF   
                    END DO   
                END IF   
            END SUBROUTINE kr_kgen_readaffile_subp2 
              
            !verify state subroutine for kv_readaffile_integer__ 
            RECURSIVE SUBROUTINE kv_readaffile_integer__(varname, check_status, var, kgenref_var) 
                CHARACTER(LEN=*), INTENT(IN) :: varname 
                TYPE(check_t), INTENT(INOUT) :: check_status 
                INTEGER, INTENT(IN) :: var, kgenref_var 
                INTEGER :: check_result 
                LOGICAL :: is_print = .FALSE. 
                  
                integer :: diff 
                  
                check_status%numTotal = check_status%numTotal + 1 
                  
                IF (var == kgenref_var) THEN 
                    check_status%numIdentical = check_status%numIdentical + 1 
                    IF (kgen_verboseLevel > 1) THEN 
                        IF (check_status%rank == 0) THEN 
                            WRITE (*, *) trim(adjustl(varname)), " is IDENTICAL." 
                        END IF   
                    END IF   
                    check_result = CHECK_IDENTICAL 
                ELSE 
                    diff = ABS(var - kgenref_var) 
                    IF (diff <= kgen_tolerance) THEN 
                        check_status%numInTol = check_status%numInTol + 1 
                        IF (kgen_verboseLevel > 1) THEN 
                            IF (check_status%rank == 0) THEN 
                                WRITE (*, *) trim(adjustl(varname)), " is NOT IDENTICAL(within tolerance)." 
                            END IF   
                        END IF   
                        check_result = CHECK_IN_TOL 
                    ELSE 
                        check_status%numOutTol = check_status%numOutTol + 1 
                        IF (kgen_verboseLevel > 0) THEN 
                            IF (check_status%rank == 0) THEN 
                                WRITE (*, *) trim(adjustl(varname)), " is NOT IDENTICAL(out of tolerance)." 
                            END IF   
                        END IF   
                        check_result = CHECK_OUT_TOL 
                    END IF   
                END IF   
                IF (check_result == CHECK_IDENTICAL) THEN 
                    IF (kgen_verboseLevel > 2) THEN 
                        IF (check_status%rank == 0) THEN 
                            WRITE (*, *) "Difference is ", 0 
                            WRITE (*, *) "" 
                        END IF   
                    END IF   
                ELSE IF (check_result == CHECK_OUT_TOL) THEN 
                    IF (kgen_verboseLevel > 0) THEN 
                        IF (check_status%rank == 0) THEN 
                            WRITE (*, *) "Difference is ", diff 
                            WRITE (*, *) "" 
                        END IF   
                    END IF   
                ELSE IF (check_result == CHECK_IN_TOL) THEN 
                    IF (kgen_verboseLevel > 1) THEN 
                        IF (check_status%rank == 0) THEN 
                            WRITE (*, *) "Difference is ", diff 
                            WRITE (*, *) "" 
                        END IF   
                    END IF   
                END IF   
                  
            END SUBROUTINE kv_readaffile_integer__ 
              
END SUBROUTINE readaffile 
!----------------------------------------------------------------------------------------------------------------------------------  
   SUBROUTINE CalculateUACoeffs(CalcDefaults,p,ColCl,ColCd,ColCm,ColUAf,UAMod)
      TYPE (AFI_UA_BL_Default_Type),intent(in):: CalcDefaults
      TYPE (AFI_Table_Type),    intent(inout) :: p                             ! This structure stores all the module parameters that are set by AirfoilInfo during the initialization phase.
      integer(IntKi),           intent(in   ) :: ColCl                         ! column for cl
      integer(IntKi),           intent(in   ) :: ColCd                         ! column for cd
      integer(IntKi),           intent(in   ) :: ColCm                         ! column for cm
      integer(IntKi),           intent(in   ) :: ColUAf                        ! column for UA f_st (based on Cl or cn)
      integer(IntKi),           intent(in   ) :: UAMod                         ! UA model; determines how to compute f_st?
   
      INTEGER(IntKi)                          :: Row                           ! The row of a table to be parsed in the FileInfo structure.
      INTEGER(IntKi)                          :: col_fs                        ! column for UA cn/cl_fs (fully separated cn or cl)
      INTEGER(IntKi)                          :: col_fa                        ! column for UA cn/cl_fa (fully attached cn or cl)
      
      INTEGER(IntKi)                          :: iCdMin
      INTEGER(IntKi)                          :: iHighLimit, iLowLimit
      INTEGER(IntKi)                          :: iHigh,  iLow
      INTEGER(IntKi)                          :: iHigh2, iLow2
      INTEGER(IntKi)                          :: iGuess, iUpper, iLower, i(1)
      INTEGER(IntKi)                          :: nRoots
      
      LOGICAL                                 :: UA_f_cn
      ! note that we don't get here with constant data, so NumAlf>2

      REAL(ReKi)                              :: roots(p%NumAlf)
      REAL(ReKi)                              :: cn(p%NumAlf)
      REAL(ReKi)                              :: ClSlope_raw(p%NumAlf-1)
      REAL(ReKi)                              :: CnSlope_raw(p%NumAlf-1)
      
      REAL(ReKi)                              :: ClSlope_(p%NumAlf-1)
      REAL(ReKi)                              :: CnSlope_(p%NumAlf-1)
      REAL(ReKi)                              :: alpha_(p%NumAlf-1)
      REAL(ReKi)                              :: alphaAtCdMin
      REAL(ReKi)                              :: CnSlopeAtCdMin
      REAL(ReKi)                              :: maxCnSlope
      
      REAL(ReKi) , PARAMETER                  :: CnSlopeThreshold = 0.90;
      REAL(ReKi) , PARAMETER                  :: fAtCriticalCn    = 0.7;
      REAL(ReKi)                              :: LimitAlphaRange
      REAL(ReKi)                              :: Default_Cn_alpha
      REAL(ReKi)                              :: Default_Cl_alpha
      REAL(ReKi)                              :: Default_alpha0
      REAL(ReKi)                              :: alphaMargin
      

      INTEGER(IntKi)                          :: ErrStat2                      ! Error status local to this routine.
      CHARACTER(ErrMsgLen)                    :: ErrMsg2
      CHARACTER(*), PARAMETER                 :: RoutineName = 'CalculateUACoeffs'

      if ( UAMod == UA_HGMV360 ) then
         LimitAlphaRange = TwoPi ! range we're limiting our equations to (in radians)
      else
         LimitAlphaRange =  20.0_ReKi * D2R ! range we're limiting our equations to (in radians)
      end if

      col_fs = ColUAf + 1
      col_fa = col_fs  + 1
      UA_f_cn = UAMod /= UA_HGM .and. UAMod /= UA_Oye ! these models use cl instead of cn
      
      if ( p%InclUAdata )  then
            ! these variables are for the unused UAMod=1 (UA_Baseline) model;
            ! TO DO: fix the calculations if we ever allow this model to be used

         if (CalcDefaults%eta_e          ) p%UA_BL%eta_e          =  1.00_ReKi ! it says it's supposed to be in the range 085 - 0.95, but then when FLookup is true, it uses 1.
         if (CalcDefaults%k0             ) p%UA_BL%k0             =  0.00_ReKi
         if (CalcDefaults%k1             ) p%UA_BL%k1             =  0.00_ReKi
         if (CalcDefaults%k2             ) p%UA_BL%k2             =  0.00_ReKi
         if (CalcDefaults%k3             ) p%UA_BL%k3             =  0.00_ReKi
         if (CalcDefaults%k1_hat         ) p%UA_BL%k1_hat         =  0.00_ReKi
         if (CalcDefaults%S1             ) p%UA_BL%S1             =  0.00_ReKi
         if (CalcDefaults%S2             ) p%UA_BL%S2             =  0.00_ReKi
         if (CalcDefaults%S3             ) p%UA_BL%S3             =  0.00_ReKi
         if (CalcDefaults%S4             ) p%UA_BL%S4             =  0.00_ReKi
            ! Set to default values:
         
         if (CalcDefaults%T_f0           ) p%UA_BL%T_f0           =  3.00_ReKi
         if (CalcDefaults%T_V0           ) p%UA_BL%T_V0           =  6.00_ReKi
         if (CalcDefaults%T_p            ) p%UA_BL%T_p            =  1.70_ReKi
         if (CalcDefaults%T_VL           ) p%UA_BL%T_VL           = 11.00_ReKi
         if (CalcDefaults%b1             ) p%UA_BL%b1             =  0.14_ReKi
         if (CalcDefaults%b2             ) p%UA_BL%b2             =  0.53_ReKi
         if (CalcDefaults%b5             ) p%UA_BL%b5             =  5.00_ReKi
         if (CalcDefaults%A1             ) p%UA_BL%A1             =  0.30_ReKi
         if (CalcDefaults%A2             ) p%UA_BL%A2             =  0.70_ReKi
         if (CalcDefaults%A5             ) p%UA_BL%A5             =  1.00_ReKi
         if (CalcDefaults%x_cp_bar       ) p%UA_BL%x_cp_bar       =  0.20_ReKi
         if (CalcDefaults%filtCutOff     ) p%UA_BL%filtCutOff     =  0.50_ReKi
         
         if (UAMod == UA_HGMV360) then ! set defaults for this model (note: we don't turn off UA)
            if (CalcDefaults%St_sh          ) p%UA_BL%St_sh          =  0.14_ReKi
            if (CalcDefaults%UACutout       ) p%UA_BL%UACutout       =  TwoPi*2              ! don't turn off UA for this model
            if (CalcDefaults%UACutout_delta ) p%UA_BL%UACutout_delta =  D2R                  ! begin turning off 1 degrees before UAcutout (if UACutout is large enough, we don't turn off UAcutout)
         else
            if (CalcDefaults%St_sh          ) p%UA_BL%St_sh          =  0.19_ReKi
            if (CalcDefaults%UACutout       ) p%UA_BL%UACutout       = 45.00_ReKi*D2R        ! turn off UA at 45 degrees
            if (CalcDefaults%UACutout_delta ) p%UA_BL%UACutout_delta =  5.00_ReKi*D2R        ! begin turning off 5 degrees before UAcutout
         end if
         
         p%UA_BL%UACutout_blend  = max(0.0_ReKi, abs(p%UA_BL%UACutout) - abs(p%UA_BL%UACutout_delta))
         !-------------------------------------
         ! Calculate based on airfoil polar:
         !-------------------------------------
         
         iCdMin = minloc(p%Coefs(:,ColCd),DIM=1, MASK=abs(p%alpha)<=LimitAlphaRange)
         
         if ( (maxval(p%Coefs(:,ColCd),DIM=1, MASK=abs(p%alpha)<=LimitAlphaRange) ==        &
               minval(p%Coefs(:,ColCd),DIM=1, MASK=abs(p%alpha)<=LimitAlphaRange)    ) .or. &
               maxval(p%Coefs(:,ColCl),DIM=1, MASK=abs(p%alpha)<=LimitAlphaRange) < 0.01 ) then
               ! Cylinder polar perhaps?
                 
                 
               if (CalcDefaults%Cd0)        p%UA_BL%Cd0 = p%Coefs(iCdMin,ColCd)
               if (CalcDefaults%alpha0)     p%UA_BL%alpha0 = 0;
               if (CalcDefaults%C_nalpha)   p%UA_BL%C_nalpha = 0;
               if (CalcDefaults%C_lalpha)   p%UA_BL%C_lalpha = 0;
               if (CalcDefaults%Cm0)        p%UA_BL%Cm0 = 0;
               if (CalcDefaults%alpha1)     p%UA_BL%alpha1 = 10*D2R;
               if (CalcDefaults%alpha2)     p%UA_BL%alpha2 = -10*D2R;
               if (CalcDefaults%Cn1)        p%UA_BL%Cn1 = 0;
               if (CalcDefaults%Cn2)        p%UA_BL%Cn2 = 0;
               if (CalcDefaults%alphaLower) p%UA_BL%alphaLower = -5*D2R;
               if (CalcDefaults%alphaUpper) p%UA_BL%alphaUpper = 5*D2R;
               
            if (.not. UA_f_cn) then
               call ComputeUASeparationFunction_onCl(p, ColCl, ColUAf, col_fs, col_fa)
            else
            
               if ( UAMod == UA_HGMV360 ) then
                  p%UA_BL%Cd0 = 0.0_ReKi  ! setting this to 0 so that Cn gets calculated properly elsewhere in this code
               end if
               Cn = Calculate_Cn(alpha=p%alpha, cl=p%Coefs(:,ColCl), cd=p%Coefs(:,ColCd), cd0=p%UA_BL%Cd0)
               call ComputeUA360_AttachedFlow(p, ColUAf, Cn, iLower, iUpper)
               call ComputeUA360_updateSeparationF( p, ColUAf, Cn, iLower, iUpper )
               call ComputeUA360_updateCnSeparated( p, ColUAf, Cn, iLower )

            end if
         else
               ! if Cd is constant, does this cause issues???
            alphaAtCdMin = p%alpha(iCdMin)
               ! compute cn:
         
            if (UAMod == UA_HGMV360) then
               !call Compute_iLoweriUpper(p, iLower, iUpper)
               !if (CalcDefaults%Cd0) p%UA_BL%Cd0 = minval( p%Coefs(iLower:iUpper, ColCd) )
               p%UA_BL%Cd0 = 0.0_ReKi  ! setting this to 0 so that Cn gets calculated properly elsewhere in this code
            else
               if (CalcDefaults%Cd0) p%UA_BL%Cd0 = p%Coefs(iCdMin,ColCd)
            end if
            cn = Calculate_Cn(alpha=p%alpha, cl=p%Coefs(:,ColCl), cd=p%Coefs(:,ColCd), cd0=p%UA_BL%Cd0)
               ! compute cn and cl slopes (raw):

            do Row=1,p%NumAlf-1
               CnSlope_raw(Row) = (      cn(Row+1)       - cn(Row)            ) / (p%alpha(Row+1) - p%alpha(Row))
               ClSlope_raw(Row) = ( p%Coefs(Row+1,ColCl) - p%Coefs(Row,ColCl) ) / (p%alpha(Row+1) - p%alpha(Row))
               alpha_(     Row) = 0.5_ReKi * (p%alpha(Row+1) + p%alpha(Row))
            end do
               ! smooth cn slope for better calculations later:
         
            call kernelSmoothing(alpha_, CnSlope_raw, kernelType_TRIWEIGHT, 2.0_ReKi*D2R, CnSlope_)
            call kernelSmoothing(alpha_, ClSlope_raw, kernelType_TRIWEIGHT, 2.0_ReKi*D2R, ClSlope_)
         
            iGuess = iCdMin
            CnSlopeAtCdMin = InterpStp( alphaAtCdMin, alpha_, CnSlope_, iGuess, p%NumAlf-1 )
               ! find bounding indices for limitAlphaRange
         
            iHighLimit = min( maxloc( alpha_ , DIM=1, MASK=alpha_ <  LimitAlphaRange) + 1, size(alpha_) ) ! we can limit this to some range
            iLowLimit  = max( minloc( alpha_ , DIM=1, MASK=alpha_ > -LimitAlphaRange) - 1, 1            ) ! we can limit this to some range
            if (iHighLimit - iLowLimit < 3) iHighLimit = min(iLowLimit+2,size(alpha_)) ! this could still be an issue if we don't have very many points in the airfoil table. If that's the case, this data is not worth anything anyway
            if (iHighLimit - iLowLimit < 3) iLowLimit  = max(iHighLimit-2,1) ! this could still be an issue if we don't have very many points in the airfoil table. If that's the case, this data is not worth anything anyway
               ! find alphaUpper (using smoothed Cn values):
            
            if (CalcDefaults%alphaUpper) then
               iHigh = iHighLimit
               if (iHigh<iCdMin) iHigh = p%NumAlf-1 !this should be an error?
            
               maxCnSlope = CnSlopeAtCdMin
               do Row=iCdMin, iHigh
                  iHigh2 = Row
                  if (CnSlope_(Row) > maxCnSlope) then
                     maxCnSlope = CnSlope_(Row)
                  else if (CnSlope_(Row) < CnSlopeThreshold*maxCnSlope) then
                     exit
                  end if
               end do

               if (iHigh2 == iCdMin) then
                  p%UA_BL%alphaUpper = alphaAtCdMin;
               else
                  iHigh2 = min(max(1, iHigh2-1), p%NumAlf-1 )
                  p%UA_BL%alphaUpper = alpha_(iHigh2);
               end if

            else
               iHigh2 = iHighLimit ! initialize for use in alphaLower if no alphaUpper default is requested
            end if
               !find alphaLower
         
            
            if (CalcDefaults%alphaLower) then
               maxCnSlope = CnSlopeAtCdMin
               
               iLow = iLowLimit
               iHigh = max( 1, min(iHigh2, iCdMin, p%NumAlf-1) )
               if (iHigh < iLow) iLow = 1

               do Row = iHigh,iLow,-1
                  iLow2 = Row
                  if (CnSlope_(Row) > maxCnSlope) then
                     maxCnSlope = CnSlope_(Row);
                  else if ( CnSlope_(Row) < CnSlopeThreshold*maxCnSlope ) then
                     exit
                  end if
               end do
            
               if (iLow2 == iCdMin) then
                  p%UA_BL%alphaLower = alphaAtCdMin;
               else
                  iLow2 = min(max(1, iLow2+1), p%NumAlf-1 )
                  p%UA_BL%alphaLower = alpha_(iLow2);
               end if
            end if
            !------------------------------------
            ! Note: C_nalpha, C_lalpha, and alpha0 are not used in HGMV360
            !------------------------------------
         
            
            if (CalcDefaults%C_nalpha .or. CalcDefaults%C_lalpha .or. CalcDefaults%alpha0) then
               
               alphaMargin = 0.2*( p%UA_BL%alphaUpper - p%UA_BL%alphaLower );
               !mask = p%alpha >= p%UA_BL%alphaLower+alphaMargin & p%alpha <= p%UA_BL%alphaUpper-alphaMargin;
            
               iLow2 = iLowLimit
               do while (iLow2 < iHighLimit-1 .and. p%alpha(iLow2) <  p%UA_BL%alphaLower + alphaMargin) 
                  iLow2 = iLow2 + 1
               end do

               iHigh2 = iHighLimit
               do while (iHigh2 > iLow2+1 .and. p%alpha(iHigh2) >  p%UA_BL%alphaUpper - alphaMargin) 
                  iHigh2 = iHigh2 - 1
               end do

               call Calculate_C_alpha(p%alpha(iLow2:iHigh2), Cn(iLow2:iHigh2), p%Coefs(iLow2:iHigh2,ColCl), Default_Cn_alpha, Default_Cl_alpha, Default_alpha0, ErrStat2, ErrMsg2)
         
               if (CalcDefaults%C_nalpha) p%UA_BL%C_nalpha = Default_Cn_alpha
               if (CalcDefaults%C_lalpha) p%UA_BL%C_lalpha = Default_Cl_alpha
               if (CalcDefaults%alpha0)   p%UA_BL%alpha0   = Default_alpha0
            end if

            if (CalcDefaults%Cm0) then
               if (ColCm > 0) then
                  iGuess = p%NumAlf/2 ! guess: start in the center
                  p%UA_BL%Cm0 = InterpStp( p%UA_BL%alpha0, p%alpha, p%Coefs(:,ColCm), iGuess, p%NumAlf )
               else
                  p%UA_BL%Cm0 = 0.0_ReKi
               end if
            end if
         
            if (.not. UA_f_cn) then !
               call ComputeUASeparationFunction_onCl(p, ColCl, ColUAf, col_fs, col_fa)
               call Compute_iLoweriUpper(p, iLower, iUpper) ! calculating iLower and iUpper here (for alpha1 and alpha2)
            else
               call ComputeUA360_AttachedFlow(p, ColUAf, Cn, iLower, iUpper)
               call ComputeUA360_updateSeparationF( p, ColUAf, Cn, iLower, iUpper )
               call ComputeUA360_updateCnSeparated( p, ColUAf, Cn, iLower )
            end if
               ! alpha1
            

            if (CalcDefaults%alpha1) then
               iGuess = max(1, minloc( p%alpha , DIM=1, MASK=p%alpha >= p%UA_BL%alphaUpper .and. p%Coefs(:,ColUAf) <= fAtCriticalCn))
               call fZeros(p%alpha(iUpper:), fAtCriticalCn - p%Coefs(iUpper:,ColUAf), roots, nRoots)

               if (nRoots==1) then
                  p%UA_BL%alpha1 = roots(1)
               elseif (nRoots>1) then
                  i = minloc( abs(roots(1:nRoots) - p%alpha(iGuess) ), DIM=1 ) ! find root closest to guess
                  p%UA_BL%alpha1 = roots(i(1))
               else
                  p%UA_BL%alpha1 = p%alpha(iGuess)
               end if
            end if
               ! alpha2
         
            if (CalcDefaults%alpha2) then